
**** 01/07/22 23:27:50 ********* PSpice 9.2 (Mar 2000) ******** ID# 1 ********

 ** Profile: "SCHEMATIC1-x"  [ C:\Users\Amir and Amin\Desktop\Elec_FinalProject\Soal3\soal3-SCHEMATIC1-x.sim ] 


 ****     CIRCUIT DESCRIPTION


******************************************************************************




** Creating circuit file "soal3-SCHEMATIC1-x.sim.cir" 
** WARNING: THIS AUTOMATICALLY GENERATED FILE MAY BE OVERWRITTEN BY SUBSEQUENT SIMULATIONS

*Libraries: 
* Local Libraries :
* From [PSPICE NETLIST] section of C:\Program Files\Orcad\PSpice\PSpice.ini file:
.lib "nom.lib" 

*Analysis directives: 
.TRAN  0 1 0 0.001 
.PROBE V(*) I(*) W(*) D(*) NOISE(*) 
.INC ".\soal3-SCHEMATIC1.net" 



**** INCLUDING soal3-SCHEMATIC1.net ****
* source SOAL3
V_V1         N00621 N00797  
+SIN 0 5 3.18309 0 0 12
L_L1         N00659 N00797  0.1  
L_L2         0 N00797  0.15  
C_C1         N00659 0  0.015  
I_I2         N00797 0 DC 0Adc AC 0Aac
+SIN 0 2 3.18309 0 0 45
R_R1         N00621 N00659  1  
R_R2         N00797 0  2  

**** RESUMING soal3-SCHEMATIC1-x.sim.cir ****
.END

**** 01/07/22 23:27:50 ********* PSpice 9.2 (Mar 2000) ******** ID# 1 ********

 ** Profile: "SCHEMATIC1-x"  [ C:\Users\Amir and Amin\Desktop\Elec_FinalProject\Soal3\soal3-SCHEMATIC1-x.sim ] 


 ****     INITIAL TRANSIENT SOLUTION       TEMPERATURE =   27.000 DEG C


******************************************************************************



 NODE   VOLTAGE     NODE   VOLTAGE     NODE   VOLTAGE     NODE   VOLTAGE


(N00621)    1.0396 (N00659)    0.0000 (N00797)    0.0000 




    VOLTAGE SOURCE CURRENTS
    NAME         CURRENT

    V_V1        -1.040E+00

    TOTAL POWER DISSIPATION   1.08E+00  WATTS



          JOB CONCLUDED

          TOTAL JOB TIME             .03
