
**** 01/04/22 23:45:28 ********* PSpice 9.2 (Mar 2000) ******** ID# 1 ********

 ** Profile: "SCHEMATIC1-mysim"  [ E:\EEC Simulations\Project\Q1\Eq2\eec - project - q1 - eq2-SCHEMATIC1-mysim.sim ] 


 ****     CIRCUIT DESCRIPTION


******************************************************************************




** Creating circuit file "eec - project - q1 - eq2-SCHEMATIC1-mysim.sim.cir" 
** WARNING: THIS AUTOMATICALLY GENERATED FILE MAY BE OVERWRITTEN BY SUBSEQUENT SIMULATIONS

*Libraries: 
* Local Libraries :
* From [PSPICE NETLIST] section of C:\Program Files\Orcad\PSpice\PSpice.ini file:
.lib "nom.lib" 

*Analysis directives: 
.TRAN  0 5 0 
.PROBE V(*) I(*) W(*) D(*) NOISE(*) 
.INC ".\eec - project - q1 - eq2-SCHEMATIC1.net" 



**** INCLUDING "eec - project - q1 - eq2-SCHEMATIC1.net" ****
* source EEC - PROJECT - Q1 - EQ2
E_U1         N00113 0 VALUE {LIMIT(V(0,N00077)*1E6,-15V,+15V)}
R_R4         N00572 N00803  2k  
R_R3         N00511 N00572  1k  
C_C1         N00077 N00113  1m  
R_R6         N00803 N00213  5k  
E_U2         N00572 0 VALUE {LIMIT(V(0,N00511)*1E6,-15V,+15V)}
R_R2         N00113 N00511  1k  
R_R1         N00213 N00077  1k  
V_V4         N01290 0 2Vdc
E_U3         N00213 0 VALUE {LIMIT(V(0,N00803)*1E6,-15V,+15V)}
V_V3         0 0  
+PULSE 0 -1 0 1e-9 1e-9 10 20
R_R5         N00803 N01290  10k  

**** RESUMING "eec - project - q1 - eq2-SCHEMATIC1-mysim.sim.cir" ****
.END

ERROR -- Voltage source and/or inductor loop involving V_V3
You may break the loop by adding a series resistance